@<TRIPOS>MOLECULE
111_trifluoropropan_2_ol
   12    11    1     0    0
SMALL
USER_CHARGES
@<TRIPOS>ATOM
   1 C1       0.0796     0.6412    -0.8830 C.3      1  R0_ -0.1393
   2 C2       0.6187    -0.1276    -2.0799 C.3      1  R0_  0.1258
   3 C3       0.8242     0.7688    -3.2824 C.3      1  R0_  0.5969
   4 O1       1.8730    -0.7089    -1.7384 O.3      1  R0_ -0.5713
   5 F1      -0.3455     1.3083    -3.6905 F        1  R0_ -0.2433
   6 F2       1.6591     1.7892    -2.9854 F        1  R0_ -0.2433
   7 F3       1.3527     0.0923    -4.3241 F        1  R0_ -0.2433
   8 H1       0.7225     1.4948    -0.6419 H        1  R0_  0.0626
   9 H2       0.0000     0.0000     0.0000 H        1  R0_  0.0626
  10 H3      -0.9121     1.0494    -1.1059 H        1  R0_  0.0626
  11 H4      -0.0690    -0.9384    -2.3422 H        1  R0_  0.1134
  12 H5       1.7006    -1.6420    -1.5365 H        1  R0_  0.4165
@<TRIPOS>BOND
   1    1    2 1 
   2    2    3 1 
   3    2    4 1 
   4    3    5 1 
   5    3    6 1 
   6    3    7 1 
   7    1    8 1 
   8    1    9 1 
   9    1   10 1 
  10    2   11 1 
  11    4   12 1 
@<TRIPOS>SUBSTRUCTURE
   1  R0_    1
@<TRIPOS>COMMENT
SMALL
NO_CHARGES
