@<TRIPOS>MOLECULE
111_trichloroethane
    8     7    1     0    0
SMALL
USER_CHARGES
@<TRIPOS>ATOM
   1 C1       1.0245     0.2811    -0.2703 C.3      1  TMP -0.1089
   2 C2       1.2871     1.7565     0.0012 C.3      1  TMP  0.2656
   3 Cl1      0.1596     2.7554    -0.9573 Cl       1  TMP -0.1242
   4 Cl2      1.0484     2.1022     1.7366 Cl       1  TMP -0.1242
   5 Cl3      2.9647     2.1642    -0.4534 Cl       1  TMP -0.1242
   6 H1       1.7030    -0.3597     0.3051 H        1  TMP  0.0720
   7 H2       0.0000    -0.0000     0.0000 H        1  TMP  0.0720
   8 H3       1.1629     0.0376    -1.3305 H        1  TMP  0.0720
@<TRIPOS>BOND
   1    1    2 1 
   2    2    3 1 
   3    2    4 1 
   4    2    5 1 
   5    1    6 1 
   6    1    7 1 
   7    1    8 1 
@<TRIPOS>SUBSTRUCTURE
   1  TMP    1
@<TRIPOS>COMMENT
SMALL
USER_CHARGES
