@<TRIPOS>MOLECULE
1122_tetrachloroethane
    8     7    1     0    0
SMALL
USER_CHARGES
@<TRIPOS>ATOM
   1 C1       1.5661    -0.6387    -1.3557 C.3      1  R0_  0.1256
   2 C2       0.7090    -0.8277    -0.0994 C.3      1  R0_  0.1256
   3 Cl1      2.7286    -1.9681    -1.6226 Cl       1  R0_ -0.1200
   4 Cl2      0.5448    -0.4503    -2.8104 Cl       1  R0_ -0.1200
   5 Cl3     -0.2876    -2.3091    -0.1421 Cl       1  R0_ -0.1200
   6 Cl4      1.7198    -0.8420     1.3744 Cl       1  R0_ -0.1200
   7 H1       2.1532     0.2814    -1.2753 H        1  R0_  0.1145
   8 H2       0.0176     0.0130     0.0140 H        1  R0_  0.1145
@<TRIPOS>BOND
   1    1    2 1 
   2    1    3 1 
   3    1    4 1 
   4    2    5 1 
   5    2    6 1 
   6    1    7 1 
   7    2    8 1 
@<TRIPOS>SUBSTRUCTURE
   1  R0_    1
@<TRIPOS>COMMENT
SMALL
USER_CHARGES
