@<TRIPOS>MOLECULE
112_trichloro_122_trifluoroethane
    8     7    1     0    0
SMALL
USER_CHARGES
@<TRIPOS>ATOM
   1 C1       1.3843     0.0329     0.6380 C.3      1  R0_  0.5084
   2 C2       0.0000     0.0000     0.0000 C.3      1  R0_  0.3445
   3 F1       1.7627    -1.2352     0.9511 F        1  R0_ -0.1868
   4 F2       2.2875     0.4784    -0.2760 F        1  R0_ -0.1868
   5 F3       0.0855    -0.7667    -1.1252 F        1  R0_ -0.1705
   6 Cl1      1.4934     1.0429     2.0949 Cl       1  R0_ -0.1321
   7 Cl2     -0.5438     1.6250    -0.4900 Cl       1  R0_ -0.0883
   8 Cl3     -1.2088    -0.7470     1.0758 Cl       1  R0_ -0.0883
@<TRIPOS>BOND
   1    1    2 1 
   2    1    3 1 
   3    1    4 1 
   4    1    6 1 
   5    2    5 1 
   6    2    7 1 
   7    2    8 1 
@<TRIPOS>SUBSTRUCTURE
   1  R0_    1
@<TRIPOS>COMMENT
SMALL
NO_CHARGES
