@<TRIPOS>MOLECULE
12_dichloroethane
    8     7    1     0    0
SMALL
USER_CHARGES
@<TRIPOS>ATOM
   1 C1      -0.3490     0.4174    -0.9492 C.3      1  R0_  0.0231
   2 C2      -1.3747    -0.5098    -1.5787 C.3      1  R0_  0.0231
   3 Cl1      1.0832     0.6225    -1.9863 Cl       1  R0_ -0.1765
   4 Cl2     -1.9766     0.1239    -3.1295 Cl       1  R0_ -0.1765
   5 H1      -0.7693     1.4085    -0.7518 H        1  R0_  0.0767
   6 H2       0.0000     0.0000     0.0000 H        1  R0_  0.0767
   7 H3      -2.2403    -0.6143    -0.9179 H        1  R0_  0.0767
   8 H4      -0.9602    -1.5067    -1.7579 H        1  R0_  0.0767
@<TRIPOS>BOND
   1    1    2 1 
   2    1    3 1 
   3    2    4 1 
   4    1    5 1 
   5    1    6 1 
   6    2    7 1 
   7    2    8 1 
@<TRIPOS>SUBSTRUCTURE
   1  R0_    1
@<TRIPOS>COMMENT
SMALL
USER_CHARGES
