@<TRIPOS>MOLECULE
13_dichloropropane
   11    10    1     0    0
SMALL
USER_CHARGES
@<TRIPOS>ATOM
   1 C1       0.7220    -0.5599    -0.6078 C.3      1  R0_ -0.0986
   2 C2       1.8694     0.3695    -0.9976 C.3      1  R0_  0.0358
   3 C3      -0.0268    -1.2071    -1.7706 C.3      1  R0_  0.0358
   4 Cl1      1.3113     1.7499    -1.9700 Cl       1  R0_ -0.1937
   5 Cl2      1.0332    -2.2396    -2.7572 Cl       1  R0_ -0.1937
   6 H1       1.1211    -1.3485     0.0426 H        1  R0_  0.0675
   7 H2      -0.0000     0.0000     0.0000 H        1  R0_  0.0675
   8 H3       2.3372     0.7789    -0.0967 H        1  R0_  0.0699
   9 H4       2.6434    -0.1525    -1.5669 H        1  R0_  0.0699
  10 H5      -0.4807    -0.4623    -2.4301 H        1  R0_  0.0699
  11 H6      -0.8290    -1.8445    -1.3855 H        1  R0_  0.0699
@<TRIPOS>BOND
   1    1    2 1 
   2    1    3 1 
   3    2    4 1 
   4    3    5 1 
   5    1    6 1 
   6    1    7 1 
   7    2    8 1 
   8    2    9 1 
   9    3   10 1 
  10    3   11 1 
@<TRIPOS>SUBSTRUCTURE
   1  R0_    1
@<TRIPOS>COMMENT
SMALL
USER_CHARGES
