@<TRIPOS>MOLECULE
1_bromooctane
   26    25    1     0    0
SMALL
USER_CHARGES
@<TRIPOS>ATOM
   1 C1       0.5945    -1.0184    -2.9605 C.3      1  R0_ -0.0898
   2 C2      -0.8351    -1.1666    -3.4592 C.3      1  R0_ -0.0780
   3 C3      -1.7302    -1.8128    -2.4011 C.3      1  R0_ -0.0770
   4 C4      -3.1853    -1.9733    -2.8507 C.3      1  R0_ -0.0764
   5 C5      -4.0651    -2.6857    -1.8210 C.3      1  R0_ -0.0760
   6 C6      -5.5002    -2.8391    -2.3305 C.3      1  R0_ -0.0794
   7 C7      -6.3745    -3.5798    -1.3176 C.3      1  R0_ -0.0786
   8 C8      -7.7865    -3.7635    -1.8472 C.3      1  R0_ -0.0056
   9 Br1     -8.8810    -4.6585    -0.5089 Br       1  R0_ -0.1814
  10 H1       1.0289    -1.9935    -2.7179 H        1  R0_  0.0318
  11 H2       1.2175    -0.5514    -3.7298 H        1  R0_  0.0318
  12 H3       0.6341    -0.3913    -2.0640 H        1  R0_  0.0318
  13 H4      -0.8362    -1.7751    -4.3708 H        1  R0_  0.0376
  14 H5      -1.2160    -0.1755    -3.7274 H        1  R0_  0.0376
  15 H6      -1.3365    -2.8078    -2.1587 H        1  R0_  0.0386
  16 H7      -1.6937    -1.2256    -1.4755 H        1  R0_  0.0386
  17 H8      -3.6092    -0.9886    -3.0822 H        1  R0_  0.0393
  18 H9      -3.1923    -2.5474    -3.7856 H        1  R0_  0.0393
  19 H10     -4.0777    -2.1207    -0.8825 H        1  R0_  0.0393
  20 H11     -3.6463    -3.6749    -1.6007 H        1  R0_  0.0393
  21 H12     -5.9269    -1.8482    -2.5286 H        1  R0_  0.0436
  22 H13     -5.4964    -3.3862    -3.2812 H        1  R0_  0.0436
  23 H14     -6.3979    -3.0195    -0.3745 H        1  R0_  0.0541
  24 H15     -5.9283    -4.5568    -1.0931 H        1  R0_  0.0541
  25 H16     -8.2724    -2.8072    -2.0593 H        1  R0_  0.0709
  26 H17     -7.8102    -4.3922    -2.7414 H        1  R0_  0.0709
@<TRIPOS>BOND
   1    1    2 1 
   2    2    3 1 
   3    3    4 1 
   4    4    5 1 
   5    5    6 1 
   6    6    7 1 
   7    7    8 1 
   8    8    9 1 
   9    1   10 1 
  10    1   11 1 
  11    1   12 1 
  12    2   13 1 
  13    2   14 1 
  14    3   15 1 
  15    3   16 1 
  16    4   17 1 
  17    4   18 1 
  18    5   19 1 
  19    5   20 1 
  20    6   21 1 
  21    6   22 1 
  22    7   23 1 
  23    7   24 1 
  24    8   25 1 
  25    8   26 1 
@<TRIPOS>SUBSTRUCTURE
   1  R0_    1
@<TRIPOS>COMMENT
SMALL
USER_CHARGES
