@<TRIPOS>MOLECULE
1_bromo_2_chloroethane
    8     7    1     0    0
SMALL
USER_CHARGES
@<TRIPOS>ATOM
   1 C1       0.6105    -0.7416     0.5250 C.3      1  R0_  0.0344
   2 C2       1.1169    -1.8117    -0.4165 C.3      1  R0_ -0.0268
   3 Cl1     -0.3995    -1.4721     1.7931 Cl       1  R0_ -0.1781
   4 Br1      2.1691    -0.9870    -1.8325 Br       1  R0_ -0.1539
   5 H1       1.4347    -0.2164     1.0180 H        1  R0_  0.0769
   6 H2       0.0000    -0.0000     0.0000 H        1  R0_  0.0769
   7 H3       0.3023    -2.3501    -0.9088 H        1  R0_  0.0853
   8 H4       1.7767    -2.5258     0.0842 H        1  R0_  0.0853
@<TRIPOS>BOND
   1    1    2 1 
   2    1    3 1 
   3    2    4 1 
   4    1    5 1 
   5    1    6 1 
   6    2    7 1 
   7    2    8 1 
@<TRIPOS>SUBSTRUCTURE
   1  R0_    1
@<TRIPOS>COMMENT
SMALL
NO_CHARGES
