@<TRIPOS>MOLECULE
1_bromopentane
   17    16    1     0    0
SMALL
USER_CHARGES
@<TRIPOS>ATOM
   1 C1       0.5486    -0.7657    -0.5004 C.3      1  R0_ -0.0906
   2 C2       1.1266    -0.3016    -1.8286 C.3      1  R0_ -0.0776
   3 C3       2.0491     0.9040    -1.6437 C.3      1  R0_ -0.0800
   4 C4       2.7109     1.3659    -2.9448 C.3      1  R0_ -0.0780
   5 C5       3.6002     2.5845    -2.7597 C.3      1  R0_ -0.0054
   6 Br1      4.4376     3.0494    -4.4569 Br       1  R0_ -0.1818
   7 H1      -0.1117    -1.6250    -0.6540 H        1  R0_  0.0332
   8 H2      -0.0346     0.0306    -0.0272 H        1  R0_  0.0332
   9 H3       1.3429    -1.0672     0.1898 H        1  R0_  0.0332
  10 H4       1.6808    -1.1282    -2.2878 H        1  R0_  0.0386
  11 H5       0.2998    -0.0492    -2.5010 H        1  R0_  0.0386
  12 H6       1.4877     1.7362    -1.2014 H        1  R0_  0.0439
  13 H7       2.8411     0.6433    -0.9304 H        1  R0_  0.0439
  14 H8       3.3077     0.5328    -3.3378 H        1  R0_  0.0537
  15 H9       1.9384     1.5726    -3.6962 H        1  R0_  0.0537
  16 H10      4.4131     2.3957    -2.0534 H        1  R0_  0.0707
  17 H11      3.0396     3.4690    -2.4481 H        1  R0_  0.0707
@<TRIPOS>BOND
   1    1    2 1 
   2    2    3 1 
   3    3    4 1 
   4    4    5 1 
   5    5    6 1 
   6    1    7 1 
   7    1    8 1 
   8    1    9 1 
   9    2   10 1 
  10    2   11 1 
  11    3   12 1 
  12    3   13 1 
  13    4   14 1 
  14    4   15 1 
  15    5   16 1 
  16    5   17 1 
@<TRIPOS>SUBSTRUCTURE
   1  R0_    1
@<TRIPOS>COMMENT
SMALL
USER_CHARGES
