@<TRIPOS>MOLECULE
1_bromobutane
   14    13    1     0    0
SMALL
USER_CHARGES
@<TRIPOS>ATOM
   1 C1      -0.0591     0.4633     0.9896 C.3      1  R0_ -0.0919
   2 C2       0.7280    -0.3543     2.0015 C.3      1  R0_ -0.0803
   3 C3       0.6658     0.2687     3.3956 C.3      1  R0_ -0.0774
   4 C4       1.4216    -0.5779     4.4055 C.3      1  R0_ -0.0047
   5 Br1      1.3673     0.2763     6.1538 Br       1  R0_ -0.1825
   6 H1       0.3384     1.4802     0.9128 H        1  R0_  0.0346
   7 H2       0.0000     0.0000     0.0000 H        1  R0_  0.0346
   8 H3      -1.1147     0.5273     1.2724 H        1  R0_  0.0346
   9 H4       1.7711    -0.4262     1.6720 H        1  R0_  0.0430
  10 H5       0.3258    -1.3737     2.0309 H        1  R0_  0.0430
  11 H6       1.0883     1.2810     3.3641 H        1  R0_  0.0527
  12 H7      -0.3820     0.3741     3.7038 H        1  R0_  0.0527
  13 H8       2.4776    -0.6839     4.1425 H        1  R0_  0.0708
  14 H9       0.9739    -1.5681     4.5274 H        1  R0_  0.0708
@<TRIPOS>BOND
   1    1    2 1 
   2    2    3 1 
   3    3    4 1 
   4    4    5 1 
   5    1    6 1 
   6    1    7 1 
   7    1    8 1 
   8    2    9 1 
   9    2   10 1 
  10    3   11 1 
  11    3   12 1 
  12    4   13 1 
  13    4   14 1 
@<TRIPOS>SUBSTRUCTURE
   1  R0_    1
@<TRIPOS>COMMENT
SMALL
USER_CHARGES
