@<TRIPOS>MOLECULE
1_bromohexane
   20    19    1     0    0
SMALL
USER_CHARGES
@<TRIPOS>ATOM
   1 C1       0.6381    -0.6734     0.5815 C.3      1  R0_ -0.0901
   2 C2      -0.0406    -1.0401     1.8915 C.3      1  R0_ -0.0782
   3 C3       0.8444    -1.9478     2.7457 C.3      1  R0_ -0.0772
   4 C4       0.1443    -2.3418     4.0483 C.3      1  R0_ -0.0793
   5 C5       1.0444    -3.2288     4.9152 C.3      1  R0_ -0.0782
   6 C6       0.3550    -3.7247     6.1768 C.3      1  R0_ -0.0057
   7 Br1      1.5375    -4.8555     7.2311 Br       1  R0_ -0.1812
   8 H1       1.5782    -0.1425     0.7619 H        1  R0_  0.0324
   9 H2      -0.0111    -0.0225    -0.0124 H        1  R0_  0.0324
  10 H3       0.8562    -1.5676    -0.0109 H        1  R0_  0.0324
  11 H4      -0.2761    -0.1227     2.4437 H        1  R0_  0.0387
  12 H5      -0.9913    -1.5422     1.6761 H        1  R0_  0.0387
  13 H6       1.7852    -1.4330     2.9755 H        1  R0_  0.0398
  14 H7       1.1003    -2.8507     2.1781 H        1  R0_  0.0398
  15 H8      -0.7841    -2.8777     3.8163 H        1  R0_  0.0432
  16 H9      -0.1346    -1.4343     4.5952 H        1  R0_  0.0432
  17 H10      1.9664    -2.6907     5.1668 H        1  R0_  0.0539
  18 H11      1.3407    -4.1043     4.3240 H        1  R0_  0.0539
  19 H12      0.0266    -2.9068     6.8234 H        1  R0_  0.0709
  20 H13     -0.5054    -4.3520     5.9274 H        1  R0_  0.0709
@<TRIPOS>BOND
   1    1    2 1 
   2    2    3 1 
   3    3    4 1 
   4    4    5 1 
   5    5    6 1 
   6    6    7 1 
   7    1    8 1 
   8    1    9 1 
   9    1   10 1 
  10    2   11 1 
  11    2   12 1 
  12    3   13 1 
  13    3   14 1 
  14    4   15 1 
  15    4   16 1 
  16    5   17 1 
  17    5   18 1 
  18    6   19 1 
  19    6   20 1 
@<TRIPOS>SUBSTRUCTURE
   1  R0_    1
@<TRIPOS>COMMENT
SMALL
USER_CHARGES
