@<TRIPOS>MOLECULE
1_chloropropane@0
   11    10    1     0    0
SMALL
USER_CHARGES
@<TRIPOS>ATOM
   1 C1       0.4629    -0.6320     1.1402 C.3      1  UNK -0.0935
   2 C2       1.2940     0.5326     1.6594 C.3      1  UNK  0.0858
   3 C3       0.7106     1.1851     2.9072 C.3      1  UNK  0.0412
   4 Cl1      0.7432     0.0916     4.3096 Cl       1  UNK -0.2021
   5 H1      -0.5678    -0.3205     0.9431 H        1  UNK  0.0382
   6 H2       0.8874    -1.0074     0.2035 H        1  UNK  0.0382
   7 H3       0.4423    -1.4630     1.8515 H        1  UNK  0.0382
   8 H4       2.3182     0.1928     1.8537 H        1  UNK -0.0350
   9 H5       1.3576     1.2906     0.8696 H        1  UNK -0.0350
  10 H6      -0.3268     1.4926     2.7441 H        1  UNK  0.0621
  11 H7       1.2924     2.0722     3.1747 H        1  UNK  0.0621
@<TRIPOS>BOND
   1    1    2 1 
   2    1    5 1 
   3    1    6 1 
   4    1    7 1 
   5    2    3 1 
   6    2    8 1 
   7    2    9 1 
   8    3    4 1 
   9    3   10 1 
  10    3   11 1 
@<TRIPOS>SUBSTRUCTURE
   1  R0_    1
@<TRIPOS>COMMENT
