@<TRIPOS>MOLECULE
1_chlorobutane
   14    13    1     0    0
SMALL
USER_CHARGES
@<TRIPOS>ATOM
   1 C1      -0.1172     0.5383     0.9457 C.3      1  R0_ -0.0917
   2 C2       0.5893    -0.2070     2.0669 C.3      1  R0_ -0.0791
   3 C3       0.4429     0.5211     3.4031 C.3      1  R0_ -0.0874
   4 C4       1.1235    -0.2515     4.5254 C.3      1  R0_  0.0422
   5 Cl1      0.9565     0.6185     6.0677 Cl       1  R0_ -0.2028
   6 H1       0.2994     1.5426     0.8189 H        1  R0_  0.0344
   7 H2       0.0000     0.0000     0.0000 H        1  R0_  0.0344
   8 H3      -1.1880     0.6338     1.1519 H        1  R0_  0.0344
   9 H4       1.6509    -0.3132     1.8149 H        1  R0_  0.0428
  10 H5       0.1717    -1.2176     2.1458 H        1  R0_  0.0428
  11 H6       0.8809     1.5238     3.3227 H        1  R0_  0.0526
  12 H7      -0.6218     0.6512     3.6335 H        1  R0_  0.0526
  13 H8       2.1925    -0.3754     4.3281 H        1  R0_  0.0623
  14 H9       0.6749    -1.2413     4.6523 H        1  R0_  0.0623
@<TRIPOS>BOND
   1    1    2 1 
   2    2    3 1 
   3    3    4 1 
   4    4    5 1 
   5    1    6 1 
   6    1    7 1 
   7    1    8 1 
   8    2    9 1 
   9    2   10 1 
  10    3   11 1 
  11    3   12 1 
  12    4   13 1 
  13    4   14 1 
@<TRIPOS>SUBSTRUCTURE
   1  R0_    1
@<TRIPOS>COMMENT
SMALL
USER_CHARGES
