@<TRIPOS>MOLECULE
1_chloroheptane
   23    22    1     0    0
SMALL
USER_CHARGES
@<TRIPOS>ATOM
   1 C1       0.2257    -0.5459     0.9152 C.3      1  R0_ -0.0898
   2 C2       1.7048    -0.4219     1.2445 C.3      1  R0_ -0.0782
   3 C3       2.5757    -1.0412     0.1515 C.3      1  R0_ -0.0772
   4 C4       4.0623    -0.9450     0.5024 C.3      1  R0_ -0.0767
   5 C5       4.9329    -1.5314    -0.6113 C.3      1  R0_ -0.0793
   6 C6       6.4325    -1.4726    -0.3054 C.3      1  R0_ -0.0877
   7 C7       7.2924    -2.0824    -1.4053 C.3      1  R0_  0.0417
   8 Cl1      9.0141    -2.0011    -0.9596 Cl       1  R0_ -0.2025
   9 H1      -0.3787    -0.0976     1.7101 H        1  R0_  0.0320
  10 H2      -0.0118    -0.0332    -0.0223 H        1  R0_  0.0320
  11 H3      -0.0674    -1.5960     0.8165 H        1  R0_  0.0320
  12 H4       1.9023    -0.9160     2.2028 H        1  R0_  0.0377
  13 H5       1.9582     0.6374     1.3672 H        1  R0_  0.0377
  14 H6       2.3885    -0.5296    -0.8005 H        1  R0_  0.0396
  15 H7       2.2988    -2.0936     0.0128 H        1  R0_  0.0396
  16 H8       4.2433    -1.4793     1.4419 H        1  R0_  0.0392
  17 H9       4.3332     0.1048     0.6670 H        1  R0_  0.0392
  18 H10      4.7513    -0.9739    -1.5387 H        1  R0_  0.0450
  19 H11      4.6379    -2.5701    -0.8047 H        1  R0_  0.0450
  20 H12      6.7098    -0.4193    -0.1698 H        1  R0_  0.0531
  21 H13      6.6310    -1.9763     0.6488 H        1  R0_  0.0531
  22 H14      7.0524    -3.1361    -1.5684 H        1  R0_  0.0624
  23 H15      7.1685    -1.5434    -2.3491 H        1  R0_  0.0624
@<TRIPOS>BOND
   1    1    2 1 
   2    2    3 1 
   3    3    4 1 
   4    4    5 1 
   5    5    6 1 
   6    6    7 1 
   7    7    8 1 
   8    1    9 1 
   9    1   10 1 
  10    1   11 1 
  11    2   12 1 
  12    2   13 1 
  13    3   14 1 
  14    3   15 1 
  15    4   16 1 
  16    4   17 1 
  17    5   18 1 
  18    5   19 1 
  19    6   20 1 
  20    6   21 1 
  21    7   22 1 
  22    7   23 1 
@<TRIPOS>SUBSTRUCTURE
   1  R0_    1
@<TRIPOS>COMMENT
SMALL
USER_CHARGES
