@<TRIPOS>MOLECULE
1_chloropentane
   17    16    1     0    0
SMALL
USER_CHARGES
@<TRIPOS>ATOM
   1 C1      -0.2385    -0.7112    -0.9459 C.3      1  R0_ -0.0902
   2 C2       0.9417    -0.5154    -1.8855 C.3      1  R0_ -0.0779
   3 C3       0.9814     0.9086    -2.4409 C.3      1  R0_ -0.0793
   4 C4       2.1517     1.1572    -3.3996 C.3      1  R0_ -0.0875
   5 C5       2.2712     2.5762    -3.9476 C.3      1  R0_  0.0417
   6 Cl1      0.8163     3.0759    -4.8387 Cl       1  R0_ -0.2025
   7 H1      -1.1859    -0.5291    -1.4633 H        1  R0_  0.0330
   8 H2      -0.1770    -0.0305    -0.0908 H        1  R0_  0.0330
   9 H3      -0.2518    -1.7365    -0.5630 H        1  R0_  0.0330
  10 H4       1.8706    -0.7315    -1.3454 H        1  R0_  0.0382
  11 H5       0.8614    -1.2406    -2.7022 H        1  R0_  0.0382
  12 H6       1.0738     1.6151    -1.6062 H        1  R0_  0.0448
  13 H7       0.0305     1.1405    -2.9343 H        1  R0_  0.0448
  14 H8       2.0633     0.4669    -4.2478 H        1  R0_  0.0530
  15 H9       3.0838     0.8913    -2.8850 H        1  R0_  0.0530
  16 H10      2.4014     3.2825    -3.1217 H        1  R0_  0.0623
  17 H11      3.1312     2.6833    -4.6142 H        1  R0_  0.0623
@<TRIPOS>BOND
   1    1    2 1 
   2    2    3 1 
   3    3    4 1 
   4    4    5 1 
   5    5    6 1 
   6    1    7 1 
   7    1    8 1 
   8    1    9 1 
   9    2   10 1 
  10    2   11 1 
  11    3   12 1 
  12    3   13 1 
  13    4   14 1 
  14    4   15 1 
  15    5   16 1 
  16    5   17 1 
@<TRIPOS>SUBSTRUCTURE
   1  R0_    1
@<TRIPOS>COMMENT
SMALL
USER_CHARGES
