@<TRIPOS>MOLECULE
1_chloro_222_trifluoroethane
    8     7    1     0    0
SMALL
USER_CHARGES
@<TRIPOS>ATOM
   1 C1       0.8499    -0.1971     0.6590 C.3      1  R0_ -0.0272
   2 C2       0.8964    -1.6527     1.0501 C.3      1  R0_  0.6426
   3 F1       1.9334    -1.9122     1.8744 F        1  R0_ -0.2353
   4 F2       1.0073    -2.4537    -0.0307 F        1  R0_ -0.2353
   5 F3      -0.2371    -2.0005     1.6999 F        1  R0_ -0.2353
   6 Cl1      0.6800     0.8376     2.0932 Cl       1  R0_ -0.1140
   7 H1       1.7679     0.0945     0.1413 H        1  R0_  0.1023
   8 H2       0.0000     0.0000    -0.0000 H        1  R0_  0.1023
@<TRIPOS>BOND
   1    1    2 1 
   2    1    6 1 
   3    2    3 1 
   4    2    4 1 
   5    2    5 1 
   6    1    7 1 
   7    1    8 1 
@<TRIPOS>SUBSTRUCTURE
   1  R0_    1
@<TRIPOS>COMMENT
SMALL
NO_CHARGES
