@<TRIPOS>MOLECULE
1_iodopentane
   17    16    1     0    0
SMALL
USER_CHARGES
@<TRIPOS>ATOM
   1 C1       1.1273    -1.4901     1.6197 C.3      1  R0_ -0.0907
   2 C2       0.2359    -0.3611     2.1135 C.3      1  R0_ -0.0778
   3 C3      -0.5623    -0.7172     3.3696 C.3      1  R0_ -0.0790
   4 C4      -1.4777     0.4130     3.8477 C.3      1  R0_ -0.0734
   5 C5      -2.2761    -0.0120     5.0805 C.3      1  R0_  0.0725
   6 I1      -3.5734     1.5631     5.7195 I        1  R0_ -0.2571
   7 H1       0.5383    -2.3412     1.2661 H        1  R0_  0.0332
   8 H2       1.7428    -1.1437     0.7832 H        1  R0_  0.0332
   9 H3       1.7976    -1.8371     2.4123 H        1  R0_  0.0332
  10 H4      -0.4466    -0.0576     1.3111 H        1  R0_  0.0386
  11 H5       0.8668     0.5073     2.3381 H        1  R0_  0.0386
  12 H6       0.1487    -0.9645     4.1677 H        1  R0_  0.0422
  13 H7      -1.1557    -1.6208     3.1841 H        1  R0_  0.0422
  14 H8      -0.8726     1.2981     4.0803 H        1  R0_  0.0518
  15 H9      -2.1679     0.6971     3.0449 H        1  R0_  0.0518
  16 H10     -1.5952    -0.2739     5.8980 H        1  R0_  0.0704
  17 H11     -2.8718    -0.9031     4.8534 H        1  R0_  0.0704
@<TRIPOS>BOND
   1    1    2 1 
   2    2    3 1 
   3    3    4 1 
   4    4    5 1 
   5    5    6 1 
   6    1    7 1 
   7    1    8 1 
   8    1    9 1 
   9    2   10 1 
  10    2   11 1 
  11    3   12 1 
  12    3   13 1 
  13    4   14 1 
  14    4   15 1 
  15    5   16 1 
  16    5   17 1 
@<TRIPOS>SUBSTRUCTURE
   1  R0_    1
@<TRIPOS>COMMENT
SMALL
USER_CHARGES
