@<TRIPOS>MOLECULE
1_iodobutane
   14    13    1     0    0
SMALL
USER_CHARGES
@<TRIPOS>ATOM
   1 C1      -0.0304     0.4285     1.0065 C.3      1  R0_ -0.0917
   2 C2       0.7904    -0.4199     1.9648 C.3      1  R0_ -0.0805
   3 C3       0.7704     0.1560     3.3812 C.3      1  R0_ -0.0725
   4 C4       1.5645    -0.7246     4.3451 C.3      1  R0_  0.0735
   5 I1       1.4997     0.0759     6.3267 I        1  R0_ -0.2580
   6 H1       0.3609     1.4495     0.9528 H        1  R0_  0.0344
   7 H2       0.0000     0.0000     0.0000 H        1  R0_  0.0344
   8 H3      -1.0770     0.4774     1.3236 H        1  R0_  0.0344
   9 H4       1.8227    -0.4767     1.6004 H        1  R0_  0.0425
  10 H5       0.3919    -1.4411     1.9722 H        1  R0_  0.0425
  11 H6       1.1894     1.1699     3.3674 H        1  R0_  0.0504
  12 H7      -0.2684     0.2448     3.7231 H        1  R0_  0.0504
  13 H8       2.6075    -0.7955     4.0167 H        1  R0_  0.0702
  14 H9       1.1545    -1.7407     4.3506 H        1  R0_  0.0702
@<TRIPOS>BOND
   1    1    2 1 
   2    2    3 1 
   3    3    4 1 
   4    4    5 1 
   5    1    6 1 
   6    1    7 1 
   7    1    8 1 
   8    2    9 1 
   9    2   10 1 
  10    3   11 1 
  11    3   12 1 
  12    4   13 1 
  13    4   14 1 
@<TRIPOS>SUBSTRUCTURE
   1  R0_    1
@<TRIPOS>COMMENT
SMALL
USER_CHARGES
