@<TRIPOS>MOLECULE
222_trifluoroethanol
    9     8    1     0    0
SMALL
USER_CHARGES
@<TRIPOS>ATOM
   1 C1       0.7722    -0.3315     0.7004 C.3      1  R0_  0.0976
   2 C2       1.3425     0.8421     1.4537 C.3      1  R0_  0.6490
   3 O1       1.8121    -0.9630    -0.0310 O.3      1  R0_ -0.5785
   4 F1       2.3095     0.4360     2.3055 F        1  R0_ -0.2379
   5 F2       0.3914     1.4672     2.1793 F        1  R0_ -0.2379
   6 F3       1.8891     1.7450     0.6124 F        1  R0_ -0.2379
   7 H1       0.3377    -1.0582     1.3932 H        1  R0_  0.0620
   8 H2       0.0000     0.0000     0.0000 H        1  R0_  0.0620
   9 H3       1.9282    -1.8483     0.3514 H        1  R0_  0.4215
@<TRIPOS>BOND
   1    1    2 1 
   2    1    3 1 
   3    2    4 1 
   4    2    5 1 
   5    2    6 1 
   6    1    7 1 
   7    1    8 1 
   8    3    9 1 
@<TRIPOS>SUBSTRUCTURE
   1  R0_    1
@<TRIPOS>COMMENT
SMALL
USER_CHARGES
