@<TRIPOS>MOLECULE
bromotrifluoromethane
    5     4    1     0    0
SMALL
USER_CHARGES
@<TRIPOS>ATOM
   1 C1      -1.1807    -0.6363     0.1782 C.3      1  R0_  0.7305
   2 F1       0.0000     0.0000    -0.0000 F        1  R0_ -0.2083
   3 F2      -0.9305    -1.9658     0.1893 F        1  R0_ -0.2083
   4 F3      -1.9526    -0.3750    -0.9019 F        1  R0_ -0.2083
   5 Br1     -2.0407    -0.0726     1.8059 Br       1  R0_ -0.1055
@<TRIPOS>BOND
   1    1    2 1 
   2    1    3 1 
   3    1    4 1 
   4    1    5 1 
@<TRIPOS>SUBSTRUCTURE
   1  R0_    1
@<TRIPOS>COMMENT
SMALL
NO_CHARGES
