@<TRIPOS>MOLECULE
chloromethane
    5     4    1     0    0
SMALL
USER_CHARGES
@<TRIPOS>ATOM
   1 C1      -0.6360     0.7003    -0.5458 C.3      1  R0_  0.0175
   2 Cl1     -1.6890     1.5373     0.6002 Cl       1  R0_ -0.1907
   3 H1      -0.0178     1.4356    -1.0654 H        1  R0_  0.0577
   4 H2       0.0000    -0.0000     0.0000 H        1  R0_  0.0577
   5 H3      -1.2522     0.1578    -1.2661 H        1  R0_  0.0577
@<TRIPOS>BOND
   1    1    2 1 
   2    1    3 1 
   3    1    4 1 
   4    1    5 1 
@<TRIPOS>SUBSTRUCTURE
   1  R0_    1
@<TRIPOS>COMMENT
SMALL
USER_CHARGES
