@<TRIPOS>MOLECULE
chloroethane
    8     7    1     0    0
SMALL
USER_CHARGES
@<TRIPOS>ATOM
   1 C1       0.1543    -0.7247     0.8062 C.3      1  R0_ -0.1042
   2 C2       1.3672    -0.3680     1.6395 C.3      1  R0_  0.0412
   3 Cl1      2.8321    -0.3570     0.6342 Cl       1  R0_ -0.2030
   4 H1      -0.7442    -0.7295     1.4311 H        1  R0_  0.0475
   5 H2       0.0000    -0.0000     0.0000 H        1  R0_  0.0475
   6 H3       0.2588    -1.7188     0.3591 H        1  R0_  0.0475
   7 H4       1.5144    -1.0958     2.4424 H        1  R0_  0.0617
   8 H5       1.2550     0.6252     2.0832 H        1  R0_  0.0617
@<TRIPOS>BOND
   1    1    2 1 
   2    2    3 1 
   3    1    4 1 
   4    1    5 1 
   5    1    6 1 
   6    2    7 1 
   7    2    8 1 
@<TRIPOS>SUBSTRUCTURE
   1  R0_    1
@<TRIPOS>COMMENT
SMALL
USER_CHARGES
