@<TRIPOS>MOLECULE
ethane
    8     7    1     0    0
SMALL
USER_CHARGES
@<TRIPOS>ATOM
   1 C1       0.8151    -0.5383     0.4928 C.3      1  R0_ -0.0910
   2 C2       2.1548    -0.0516    -0.0117 C.3      1  R0_ -0.0910
   3 H1       0.7300    -0.3795     1.5720 H        1  R0_  0.0303
   4 H2       0.0000    -0.0000     0.0000 H        1  R0_  0.0303
   5 H3       0.6937    -1.6069     0.2914 H        1  R0_  0.0303
   6 H4       2.9698    -0.5906     0.4805 H        1  R0_  0.0303
   7 H5       2.2767     1.0166     0.1908 H        1  R0_  0.0303
   8 H6       2.2396    -0.2097    -1.0909 H        1  R0_  0.0303
@<TRIPOS>BOND
   1    1    2 1 
   2    1    3 1 
   3    1    4 1 
   4    1    5 1 
   5    2    6 1 
   6    2    7 1 
   7    2    8 1 
@<TRIPOS>SUBSTRUCTURE
   1  R0_    1
@<TRIPOS>COMMENT
SMALL
NO_CHARGES
