@<TRIPOS>MOLECULE
fluoromethane
    5     4    1     0    0
SMALL
USER_CHARGES
@<TRIPOS>ATOM
   1 C1      -0.4408     0.7983    -0.6005 C.3      1  R0_  0.1569
   2 F1      -1.2210     1.5665     0.2006 F        1  R0_ -0.2554
   3 H1       0.3443     1.4239    -1.0299 H        1  R0_  0.0328
   4 H2       0.0000    -0.0000     0.0000 H        1  R0_  0.0328
   5 H3      -1.0610     0.3750    -1.3930 H        1  R0_  0.0328
@<TRIPOS>BOND
   1    1    2 1 
   2    1    3 1 
   3    1    4 1 
   4    1    5 1 
@<TRIPOS>SUBSTRUCTURE
   1  R0_    1
@<TRIPOS>COMMENT
SMALL
NO_CHARGES
