@<TRIPOS>MOLECULE
halothane
    8     7    1     0    0
SMALL
USER_CHARGES
@<TRIPOS>ATOM
   1 C1       0.0000    -0.0000     0.0000 C.3      1  R0_  0.0304
   2 C2      -0.3426    -0.5418    -1.3672 C.3      1  R0_  0.6539
   3 F1      -0.0822    -1.8677    -1.4374 F        1  R0_ -0.2238
   4 F2      -1.6449    -0.3642    -1.6762 F        1  R0_ -0.2238
   5 F3       0.3956     0.0568    -2.3291 F        1  R0_ -0.2238
   6 Cl1     -0.9657    -0.7876     1.2616 Cl       1  R0_ -0.0824
   7 Br1     -0.3208     1.9193     0.0594 Br       1  R0_ -0.0636
   8 H1       1.0583    -0.1464     0.2314 H        1  R0_  0.1332
@<TRIPOS>BOND
   1    1    2 1 
   2    1    6 1 
   3    1    7 1 
   4    2    3 1 
   5    2    4 1 
   6    2    5 1 
   7    1    8 1 
@<TRIPOS>SUBSTRUCTURE
   1  R0_    1
@<TRIPOS>COMMENT
SMALL
USER_CHARGES
