@<TRIPOS>MOLECULE
hexan_1_ol
   21    20    1     0    0
SMALL
USER_CHARGES
@<TRIPOS>ATOM
   1 C1       1.7833    -1.3584     0.9178 C.3      1  R0_ -0.0899
   2 C2       1.1442    -1.8866     2.1933 C.3      1  R0_ -0.0778
   3 C3      -0.1230    -1.1065     2.5457 C.3      1  R0_ -0.0767
   4 C4      -0.7660    -1.5523     3.8620 C.3      1  R0_ -0.0744
   5 C5      -2.0456    -0.7898     4.2020 C.3      1  R0_ -0.1166
   6 C6      -2.6297    -1.2442     5.5331 C.3      1  R0_  0.1294
   7 O1      -3.8211    -0.5123     5.7858 O.3      1  R0_ -0.6002
   8 H1       2.6848    -1.9319     0.6802 H        1  R0_  0.0319
   9 H2       1.0947    -1.4412     0.0708 H        1  R0_  0.0319
  10 H3       2.0688    -0.3074     1.0277 H        1  R0_  0.0319
  11 H4       1.8672    -1.8141     3.0137 H        1  R0_  0.0380
  12 H5       0.9125    -2.9479     2.0545 H        1  R0_  0.0380
  13 H6      -0.8521    -1.1958     1.7312 H        1  R0_  0.0390
  14 H7       0.1252    -0.0410     2.6309 H        1  R0_  0.0390
  15 H8      -0.0356    -1.4015     4.6668 H        1  R0_  0.0421
  16 H9      -0.9747    -2.6284     3.8233 H        1  R0_  0.0421
  17 H10     -2.8003    -0.9283     3.4193 H        1  R0_  0.0446
  18 H11     -1.8465     0.2883     4.2424 H        1  R0_  0.0446
  19 H12     -2.8747    -2.3107     5.5080 H        1  R0_  0.0432
  20 H13     -1.9274    -1.0587     6.3521 H        1  R0_  0.0432
  21 H14     -3.9589     0.0715     5.0223 H        1  R0_  0.3966
@<TRIPOS>BOND
   1    1    2 1 
   2    2    3 1 
   3    3    4 1 
   4    4    5 1 
   5    5    6 1 
   6    6    7 1 
   7    1    8 1 
   8    1    9 1 
   9    1   10 1 
  10    2   11 1 
  11    2   12 1 
  12    3   13 1 
  13    3   14 1 
  14    4   15 1 
  15    4   16 1 
  16    5   17 1 
  17    5   18 1 
  18    6   19 1 
  19    6   20 1 
  20    7   21 1 
@<TRIPOS>SUBSTRUCTURE
   1  R0_    1
@<TRIPOS>COMMENT
SMALL
USER_CHARGES
