@<TRIPOS>MOLECULE
iodoethane
    8     7    1     0    0
SMALL
USER_CHARGES
@<TRIPOS>ATOM
   1 C1       0.1447    -0.6955     0.8338 C.3      1  R0_ -0.0891
   2 C2       1.4101    -0.3747     1.6104 C.3      1  R0_  0.0724
   3 I1       3.1275    -0.5146     0.3556 I        1  R0_ -0.2569
   4 H1      -0.7286    -0.6194     1.4899 H        1  R0_  0.0448
   5 H2       0.0000    -0.0000     0.0000 H        1  R0_  0.0448
   6 H3       0.1715    -1.7122     0.4272 H        1  R0_  0.0448
   7 H4       1.5088    -1.0687     2.4520 H        1  R0_  0.0696
   8 H5       1.3374     0.6351     2.0281 H        1  R0_  0.0696
@<TRIPOS>BOND
   1    1    2 1 
   2    2    3 1 
   3    1    4 1 
   4    1    5 1 
   5    1    6 1 
   6    2    7 1 
   7    2    8 1 
@<TRIPOS>SUBSTRUCTURE
   1  R0_    1
@<TRIPOS>COMMENT
SMALL
USER_CHARGES
