@<TRIPOS>MOLECULE
methanethiol
    6     5    1     0    0
SMALL
USER_CHARGES
@<TRIPOS>ATOM
   1 C1       0.2788     0.8226     0.6632 C.3      1  R0_ -0.0203
   2 S1      -0.4279     2.3668     0.0544 S.3      1  R0_ -0.3634
   3 H1       1.3683     0.9000     0.6965 H        1  R0_  0.0627
   4 H2      -0.0000     0.0000     0.0000 H        1  R0_  0.0627
   5 H3      -0.0956     0.6140     1.6684 H        1  R0_  0.0627
   6 H4       0.1845     2.3556    -1.1387 H        1  R0_  0.1956
@<TRIPOS>BOND
   1    1    2 1 
   2    1    3 1 
   3    1    4 1 
   4    1    5 1 
   5    2    6 1 
@<TRIPOS>SUBSTRUCTURE
   1  R0_    1
@<TRIPOS>COMMENT
SMALL
NO_CHARGES
