@<TRIPOS>MOLECULE
methane
    5     4    1     0    0
SMALL
USER_CHARGES
@<TRIPOS>ATOM
   1 C1      -0.6833     0.8132     0.2538 C.3      1  R0_ -0.1048
   2 H1      -0.1292     1.6130     0.7502 H        1  R0_  0.0262
   3 H2       0.0000     0.0000    -0.0000 H        1  R0_  0.0262
   4 H3      -1.4615     0.4398     0.9230 H        1  R0_  0.0262
   5 H4      -1.1424     1.2007    -0.6583 H        1  R0_  0.0262
@<TRIPOS>BOND
   1    1    2 1 
   2    1    3 1 
   3    1    4 1 
   4    1    5 1 
@<TRIPOS>SUBSTRUCTURE
   1  R0_    1
@<TRIPOS>COMMENT
SMALL
NO_CHARGES
