@<TRIPOS>MOLECULE
methylamine
    7     6    1     0    0
SMALL
USER_CHARGES
@<TRIPOS>ATOM
   1 C1      -0.7670    -0.6855     0.3708 C.3      1  R0_  0.1498
   2 N1      -1.8451    -0.8015    -0.5949 N.3      1  R0_ -0.9186
   3 H1      -1.1443    -0.3070     1.3251 H        1  R0_  0.0248
   4 H2       0.0000     0.0000     0.0000 H        1  R0_  0.0248
   5 H3      -0.3040    -1.6619     0.5391 H        1  R0_  0.0248
   6 H4      -2.2872     0.1083    -0.7200 H        1  R0_  0.3471
   7 H5      -2.5666    -1.4187    -0.2245 H        1  R0_  0.3471
@<TRIPOS>BOND
   1    1    2 1 
   2    1    3 1 
   3    1    4 1 
   4    1    5 1 
   5    2    6 1 
   6    2    7 1 
@<TRIPOS>SUBSTRUCTURE
   1  R0_    1
@<TRIPOS>COMMENT
SMALL
USER_CHARGES
