@<TRIPOS>MOLECULE
n_butylamine
   16    15    1     0    0
SMALL
USER_CHARGES
@<TRIPOS>ATOM
   1 C1       1.0009    -0.0195    -0.3646 C.3      1  R0_ -0.0899
   2 C2       1.4148     1.2879    -1.0210 C.3      1  R0_ -0.0765
   3 C3       0.4956     1.6440    -2.1900 C.3      1  R0_ -0.0786
   4 C4       0.8962     2.9762    -2.8215 C.3      1  R0_  0.1616
   5 N1       0.0214     3.2872    -3.9457 N.3      1  R0_ -0.9166
   6 H1       1.6717    -0.2548     0.4677 H        1  R0_  0.0323
   7 H2      -0.0188     0.0444     0.0283 H        1  R0_  0.0323
   8 H3       1.0429    -0.8478    -1.0792 H        1  R0_  0.0323
   9 H4       1.3928     2.0887    -0.2727 H        1  R0_  0.0386
  10 H5       2.4492     1.2014    -1.3736 H        1  R0_  0.0386
  11 H6       0.5384     0.8478    -2.9441 H        1  R0_  0.0429
  12 H7      -0.5416     1.6967    -1.8354 H        1  R0_  0.0429
  13 H8       0.8346     3.7806    -2.0804 H        1  R0_  0.0225
  14 H9       1.9309     2.9285    -3.1772 H        1  R0_  0.0225
  15 H10     -0.2062     4.2784    -3.9259 H        1  R0_  0.3476
  16 H11     -0.8572     2.7876    -3.8315 H        1  R0_  0.3476
@<TRIPOS>BOND
   1    1    2 1 
   2    2    3 1 
   3    3    4 1 
   4    4    5 1 
   5    1    6 1 
   6    1    7 1 
   7    1    8 1 
   8    2    9 1 
   9    2   10 1 
  10    3   11 1 
  11    3   12 1 
  12    4   13 1 
  13    4   14 1 
  14    5   15 1 
  15    5   16 1 
@<TRIPOS>SUBSTRUCTURE
   1  R0_    1
@<TRIPOS>COMMENT
SMALL
USER_CHARGES
