@<TRIPOS>MOLECULE
n_pentylamine
   19    18    1     0    0
SMALL
USER_CHARGES
@<TRIPOS>ATOM
   1 C1       0.0375    -0.7160     0.8641 C.3      1  R0_ -0.0898
   2 C2       1.2741    -0.4303     1.7013 C.3      1  R0_ -0.0783
   3 C3       2.5561    -0.6357     0.8947 C.3      1  R0_ -0.0761
   4 C4       3.7991    -0.3799     1.7498 C.3      1  R0_ -0.0787
   5 C5       5.0775    -0.5515     0.9310 C.3      1  R0_  0.1609
   6 N1       6.2493    -0.3237     1.7683 N.3      1  R0_ -0.9165
   7 H1      -0.8676    -0.5625     1.4602 H        1  R0_  0.0316
   8 H2      -0.0107    -0.0510    -0.0041 H        1  R0_  0.0316
   9 H3       0.0368    -1.7503     0.5056 H        1  R0_  0.0316
  10 H4       1.2754    -1.0894     2.5773 H        1  R0_  0.0375
  11 H5       1.2277     0.6007     2.0709 H        1  R0_  0.0375
  12 H6       2.5590     0.0403     0.0310 H        1  R0_  0.0408
  13 H7       2.5838    -1.6600     0.5034 H        1  R0_  0.0408
  14 H8       3.8069    -1.0736     2.6000 H        1  R0_  0.0433
  15 H9       3.7548     0.6360     2.1626 H        1  R0_  0.0433
  16 H10      5.0881     0.1533     0.0924 H        1  R0_  0.0227
  17 H11      5.1265    -1.5642     0.5167 H        1  R0_  0.0227
  18 H12      5.9581     0.1262     2.6328 H        1  R0_  0.3476
  19 H13      6.8715     0.3299     1.2988 H        1  R0_  0.3476
@<TRIPOS>BOND
   1    1    2 1 
   2    2    3 1 
   3    3    4 1 
   4    4    5 1 
   5    5    6 1 
   6    1    7 1 
   7    1    8 1 
   8    1    9 1 
   9    2   10 1 
  10    2   11 1 
  11    3   12 1 
  12    3   13 1 
  13    4   14 1 
  14    4   15 1 
  15    5   16 1 
  16    5   17 1 
  17    6   18 1 
  18    6   19 1 
@<TRIPOS>SUBSTRUCTURE
   1  R0_    1
@<TRIPOS>COMMENT
SMALL
USER_CHARGES
