@<TRIPOS>MOLECULE
n_propanethiol
   12    11    1     0    0
SMALL
USER_CHARGES
@<TRIPOS>ATOM
   1 C1       0.1575    -0.4974     0.9622 C.3      1  R0_ -0.0951
   2 C2       1.6397    -0.5220     1.3061 C.3      1  R0_ -0.0806
   3 C3       1.8811    -1.2098     2.6451 C.3      1  R0_  0.0087
   4 S1       3.6533    -1.2345     3.0372 S.3      1  R0_ -0.3804
   5 H1      -0.4127     0.0456     1.7227 H        1  R0_  0.0372
   6 H2       0.0000     0.0000    -0.0000 H        1  R0_  0.0372
   7 H3      -0.2452    -1.5128     0.8897 H        1  R0_  0.0372
   8 H4       2.0115     0.5095     1.3338 H        1  R0_  0.0470
   9 H5       2.1779    -1.0441     0.5058 H        1  R0_  0.0470
  10 H6       1.3554    -0.6852     3.4494 H        1  R0_  0.0712
  11 H7       1.5173    -2.2420     2.6204 H        1  R0_  0.0712
  12 H8       4.0131    -2.0270     2.0185 H        1  R0_  0.1993
@<TRIPOS>BOND
   1    1    2 1 
   2    2    3 1 
   3    3    4 1 
   4    1    5 1 
   5    1    6 1 
   6    1    7 1 
   7    2    8 1 
   8    2    9 1 
   9    3   10 1 
  10    3   11 1 
  11    4   12 1 
@<TRIPOS>SUBSTRUCTURE
   1  R0_    1
@<TRIPOS>COMMENT
SMALL
NO_CHARGES
