@<TRIPOS>MOLECULE
nonan_1_ol
   30    29    1     0    0
SMALL
USER_CHARGES
@<TRIPOS>ATOM
   1 C1      -1.7041     1.7752     4.0539 C.3      1  R0_ -0.0898
   2 C2      -2.2584     1.8823     2.6415 C.3      1  R0_ -0.0781
   3 C3      -1.9529     3.2476     2.0250 C.3      1  R0_ -0.0768
   4 C4      -2.4110     3.3758     0.5690 C.3      1  R0_ -0.0762
   5 C5      -2.0823     4.7035    -0.1204 C.3      1  R0_ -0.0762
   6 C6      -2.5441     4.7640    -1.5779 C.3      1  R0_ -0.0776
   7 C7      -2.1622     6.0975    -2.2253 C.3      1  R0_ -0.0765
   8 C8      -2.5981     6.1475    -3.6926 C.3      1  R0_ -0.1168
   9 C9      -2.2516     7.4770    -4.3516 C.3      1  R0_  0.1300
  10 O1      -2.6928     7.4782    -5.7017 O.3      1  R0_ -0.6007
  11 H1      -1.9370     0.7938     4.4789 H        1  R0_  0.0316
  12 H2      -0.6163     1.8978     4.0593 H        1  R0_  0.0316
  13 H3      -2.1398     2.5397     4.7050 H        1  R0_  0.0316
  14 H4      -3.3401     1.7141     2.6772 H        1  R0_  0.0375
  15 H5      -1.8236     1.0884     2.0233 H        1  R0_  0.0375
  16 H6      -2.4041     4.0402     2.6329 H        1  R0_  0.0383
  17 H7      -0.8693     3.4192     2.0545 H        1  R0_  0.0383
  18 H8      -3.4967     3.2232     0.5251 H        1  R0_  0.0385
  19 H9      -1.9627     2.5571    -0.0077 H        1  R0_  0.0385
  20 H10     -2.5722     5.5074     0.4438 H        1  R0_  0.0386
  21 H11     -1.0058     4.9013    -0.0624 H        1  R0_  0.0386
  22 H12     -3.6317     4.6311    -1.6246 H        1  R0_  0.0395
  23 H13     -2.0905     3.9468    -2.1497 H        1  R0_  0.0395
  24 H14     -2.6338     6.9211    -1.6756 H        1  R0_  0.0416
  25 H15     -1.0773     6.2394    -2.1527 H        1  R0_  0.0416
  26 H16     -2.1037     5.3340    -4.2371 H        1  R0_  0.0463
  27 H17     -3.6799     5.9851    -3.7615 H        1  R0_  0.0463
  28 H18     -2.7514     8.2968    -3.8260 H        1  R0_  0.0432
  29 H19     -1.1715     7.6544    -4.3326 H        1  R0_  0.0432
  30 H20     -3.6637     7.4780    -5.6801 H        1  R0_  0.3970
@<TRIPOS>BOND
   1    1    2 1 
   2    2    3 1 
   3    3    4 1 
   4    4    5 1 
   5    5    6 1 
   6    6    7 1 
   7    7    8 1 
   8    8    9 1 
   9    9   10 1 
  10    1   11 1 
  11    1   12 1 
  12    1   13 1 
  13    2   14 1 
  14    2   15 1 
  15    3   16 1 
  16    3   17 1 
  17    4   18 1 
  18    4   19 1 
  19    5   20 1 
  20    5   21 1 
  21    6   22 1 
  22    6   23 1 
  23    7   24 1 
  24    7   25 1 
  25    8   26 1 
  26    8   27 1 
  27    9   28 1 
  28    9   29 1 
  29   10   30 1 
@<TRIPOS>SUBSTRUCTURE
   1  R0_    1
@<TRIPOS>COMMENT
SMALL
USER_CHARGES
