@<TRIPOS>MOLECULE
octan_1_ol
   27    26    1     0    0
SMALL
USER_CHARGES
@<TRIPOS>ATOM
   1 C1       2.7488     3.1255    -2.5860 C.3      1  R0_ -0.0898
   2 C2       2.2131     1.7315    -2.8714 C.3      1  R0_ -0.0781
   3 C3       1.0300     1.7733    -3.8398 C.3      1  R0_ -0.0772
   4 C4       0.5206     0.3647    -4.1524 C.3      1  R0_ -0.0767
   5 C5      -0.6196     0.3419    -5.1745 C.3      1  R0_ -0.0770
   6 C6      -1.0791    -1.0707    -5.5423 C.3      1  R0_ -0.0758
   7 C7      -2.1998    -1.0351    -6.5803 C.3      1  R0_ -0.1169
   8 C8      -2.6928    -2.4339    -6.9230 C.3      1  R0_  0.1297
   9 O1      -3.7194    -2.3327    -7.9001 O.3      1  R0_ -0.6006
  10 H1       1.9767     3.7582    -2.1365 H        1  R0_  0.0317
  11 H2       3.0965     3.6077    -3.5053 H        1  R0_  0.0317
  12 H3       3.5921     3.0724    -1.8902 H        1  R0_  0.0317
  13 H4       1.9058     1.2642    -1.9285 H        1  R0_  0.0375
  14 H5       3.0177     1.1166    -3.2913 H        1  R0_  0.0375
  15 H6       0.2275     2.3741    -3.3975 H        1  R0_  0.0387
  16 H7       1.3338     2.2698    -4.7692 H        1  R0_  0.0387
  17 H8       0.1946    -0.1254    -3.2269 H        1  R0_  0.0387
  18 H9       1.3486    -0.2344    -4.5517 H        1  R0_  0.0387
  19 H10     -1.4692     0.9198    -4.7908 H        1  R0_  0.0390
  20 H11     -0.2743     0.8533    -6.0817 H        1  R0_  0.0390
  21 H12     -1.4363    -1.5945    -4.6486 H        1  R0_  0.0420
  22 H13     -0.2309    -1.6423    -5.9379 H        1  R0_  0.0420
  23 H14     -1.8542    -0.5385    -7.4956 H        1  R0_  0.0460
  24 H15     -3.0400    -0.4334    -6.2118 H        1  R0_  0.0460
  25 H16     -1.8816    -3.0444    -7.3323 H        1  R0_  0.0432
  26 H17     -3.1023    -2.9316    -6.0382 H        1  R0_  0.0432
  27 H18     -3.3050    -2.5047    -8.7613 H        1  R0_  0.3970
@<TRIPOS>BOND
   1    1    2 1 
   2    2    3 1 
   3    3    4 1 
   4    4    5 1 
   5    5    6 1 
   6    6    7 1 
   7    7    8 1 
   8    8    9 1 
   9    1   10 1 
  10    1   11 1 
  11    1   12 1 
  12    2   13 1 
  13    2   14 1 
  14    3   15 1 
  15    3   16 1 
  16    4   17 1 
  17    4   18 1 
  18    5   19 1 
  19    5   20 1 
  20    6   21 1 
  21    6   22 1 
  22    7   23 1 
  23    7   24 1 
  24    8   25 1 
  25    8   26 1 
  26    9   27 1 
@<TRIPOS>SUBSTRUCTURE
   1  R0_    1
@<TRIPOS>COMMENT
SMALL
USER_CHARGES
