@<TRIPOS>MOLECULE
pentachloroethane
    8     7    1     0    0
SMALL
USER_CHARGES
@<TRIPOS>ATOM
   1 C1       0.0000     0.0000     0.0000 C.3      1  R0_  0.1211
   2 C2       0.9418    -0.8738     0.8533 C.3      1  R0_  0.2301
   3 Cl1     -1.4356     0.5708     0.9116 Cl       1  R0_ -0.1053
   4 Cl2      0.8201     1.4386    -0.6893 Cl       1  R0_ -0.1053
   5 Cl3      2.3575    -1.4108    -0.1210 Cl       1  R0_ -0.0884
   6 Cl4      0.0938    -2.3649     1.4012 Cl       1  R0_ -0.0884
   7 Cl5      1.5520    -0.0104     2.3025 Cl       1  R0_ -0.0884
   8 H1      -0.3849    -0.5699    -0.8520 H        1  R0_  0.1246
@<TRIPOS>BOND
   1    1    2 1 
   2    1    3 1 
   3    1    4 1 
   4    2    5 1 
   5    2    6 1 
   6    2    7 1 
   7    1    8 1 
@<TRIPOS>SUBSTRUCTURE
   1  R0_    1
@<TRIPOS>COMMENT
SMALL
USER_CHARGES
