@<TRIPOS>MOLECULE
propan_1_ol
   12    11    1     0    0
SMALL
USER_CHARGES
@<TRIPOS>ATOM
   1 C1      -0.0035    -0.6640     0.8700 C.3      1  R0_ -0.0888
   2 C2       1.2444    -0.4434     1.7060 C.3      1  R0_ -0.1040
   3 C3       1.2749    -1.3494     2.9273 C.3      1  R0_  0.1306
   4 O1       2.4570    -1.0814     3.6686 O.3      1  R0_ -0.6011
   5 H1      -0.9070    -0.4562     1.4521 H        1  R0_  0.0361
   6 H2       0.0000     0.0000    -0.0000 H        1  R0_  0.0361
   7 H3      -0.0566    -1.6961     0.5094 H        1  R0_  0.0361
   8 H4       1.2990     0.6047     2.0239 H        1  R0_  0.0443
   9 H5       2.1379    -0.6194     1.0950 H        1  R0_  0.0443
  10 H6       0.4098    -1.1652     3.5724 H        1  R0_  0.0348
  11 H7       1.2804    -2.4035     2.6318 H        1  R0_  0.0348
  12 H8       3.1748    -0.9751     3.0234 H        1  R0_  0.3972
@<TRIPOS>BOND
   1    1    2 1 
   2    2    3 1 
   3    3    4 1 
   4    1    5 1 
   5    1    6 1 
   6    1    7 1 
   7    2    8 1 
   8    2    9 1 
   9    3   10 1 
  10    3   11 1 
  11    4   12 1 
@<TRIPOS>SUBSTRUCTURE
   1  R0_    1
@<TRIPOS>COMMENT
SMALL
USER_CHARGES
