@<TRIPOS>MOLECULE
tetrachloromethane
    5     4    1     0    0
SMALL
USER_CHARGES
@<TRIPOS>ATOM
   1 C1      -1.6170    -0.7008    -0.2649 C.3      1  R0_  0.3271
   2 Cl1      0.0000     0.0000     0.0000 Cl       1  R0_ -0.0817
   3 Cl2     -1.4944    -2.4778    -0.3016 Cl       1  R0_ -0.0817
   4 Cl3     -2.2696    -0.1176    -1.8171 Cl       1  R0_ -0.0817
   5 Cl4     -2.7024    -0.2062     1.0583 Cl       1  R0_ -0.0817
@<TRIPOS>BOND
   1    1    2 1 
   2    1    3 1 
   3    1    4 1 
   4    1    5 1 
@<TRIPOS>SUBSTRUCTURE
   1  R0_    1
@<TRIPOS>COMMENT
SMALL
USER_CHARGES
