@<TRIPOS>MOLECULE
tribromomethane
    5     4    1     0    0
SMALL
USER_CHARGES
@<TRIPOS>ATOM
   1 C1      -0.0000     0.0000     0.0000 C.3      1  R0_  0.0556
   2 Br1      0.2845    -1.9157     0.1694 Br       1  R0_ -0.0623
   3 Br2     -0.0015     0.8965     1.7251 Br       1  R0_ -0.0623
   4 Br3      1.2430     0.8181    -1.2511 Br       1  R0_ -0.0623
   5 H1      -0.9993     0.1313    -0.4216 H        1  R0_  0.1313
@<TRIPOS>BOND
   1    1    2 1 
   2    1    3 1 
   3    1    4 1 
   4    1    5 1 
@<TRIPOS>SUBSTRUCTURE
   1  R0_    1
@<TRIPOS>COMMENT
SMALL
USER_CHARGES
