@<TRIPOS>MOLECULE
trichloromethane
    5     4    1     0    0
SMALL
USER_CHARGES
@<TRIPOS>ATOM
   1 C1      -0.0000     0.0000     0.0000 C.3      1  R0_  0.2284
   2 Cl1     -0.8884    -1.5303    -0.0874 Cl       1  R0_ -0.1160
   3 Cl2      0.3145     0.4422     1.6865 Cl       1  R0_ -0.1160
   4 Cl3      1.5171    -0.1079    -0.9089 Cl       1  R0_ -0.1160
   5 H1      -0.6163     0.7817    -0.4514 H        1  R0_  0.1195
@<TRIPOS>BOND
   1    1    2 1 
   2    1    3 1 
   3    1    4 1 
   4    1    5 1 
@<TRIPOS>SUBSTRUCTURE
   1  R0_    1
@<TRIPOS>COMMENT
SMALL
USER_CHARGES
